*Heading
** Job name: Job-1 Model name: Model-1
** Generated by: Abaqus/CAE 2022
*Preprint, echo=NO, model=NO, history=NO, contact=NO
**
** PARTS
**
*Part, name=Part-1
*Node
      1,          -1.,           0.,           1.
      2,          -1.,          0.5,           1.
      3,          -1.,           1.,           1.
      4,          -1.,           0.,          0.5
      5,          -1.,          0.5,          0.5
      6,          -1.,           1.,          0.5
      7,          -1.,           0.,           0.
      8,          -1.,          0.5,           0.
      9,          -1.,           1.,           0.
     10,         -0.5,           0.,           1.
     11,         -0.5,          0.5,           1.
     12,         -0.5,           1.,           1.
     13,         -0.5,           0.,          0.5
     14,         -0.5,          0.5,          0.5
     15,         -0.5,           1.,          0.5
     16,         -0.5,           0.,           0.
     17,         -0.5,          0.5,           0.
     18,         -0.5,           1.,           0.
     19,           0.,           0.,           1.
     20,           0.,          0.5,           1.
** ... 7 like lines cut
*Element, type=C3D8R
1, 10, 11, 14, 13,  1,  2,  5,  4
2, 11, 12, 15, 14,  2,  3,  6,  5
3, 13, 14, 17, 16,  4,  5,  8,  7
4, 14, 15, 18, 17,  5,  6,  9,  8
5, 19, 20, 23, 22, 10, 11, 14, 13
6, 20, 21, 24, 23, 11, 12, 15, 14
7, 22, 23, 26, 25, 13, 14, 17, 16
8, 23, 24, 27, 26, 14, 15, 18, 17
*Nset, nset=Set-1, generate
  1,  27,   1
*Elset, elset=Set-1, generate
 1,  8,  1
** Section: Section-1
*Solid Section, elset=Set-1, material=Material-1
,
*End Part
**  
**
** ASSEMBLY
**
*Assembly, name=Assembly
**  
*Instance, name=Part-1-1, part=Part-1
*End Instance
**  
*Nset, nset=_PickedSet4, internal, instance=Part-1-1
 1, 2, 4, 5, 6, 7, 8, 9
*Elset, elset=_PickedSet4, internal, instance=Part-1-1, generate
 1,  4,  1
*Nset, nset=_PickedSet5, internal, instance=Part-1-1
  2, 10, 11, 12, 20
*Elset, elset=_PickedSet5, internal, instance=Part-1-1
 1, 2, 5, 6
*Nset, nset=_PickedSet6, internal, instance=Part-1-1
 12, 15, 18, 24
*Elset, elset=_PickedSet6, internal, instance=Part-1-1, generate
 2,  8,  2
*Nset, nset=_PickedSet7, internal, instance=Part-1-1
  4, 13, 16
*Elset, elset=_PickedSet7, internal, instance=Part-1-1, generate
 1,  7,  2
*End Assembly
*Amplitude, name=Amp-1
             0.,              0.,              1.,              1.
** 
** MATERIALS
** 
*Material, name=Material-1
*Density
100.,
*Depvar
100,
*User Material, constants=2
1000., 0.3
** ----------------------------------------------------------------
** 
** STEP: Step-1
** 
*Step, name=Step-1, nlgeom=YES
*Dynamic, Explicit, DIRECT USER CONTROL
1.0E-06, 1.0E-02
*Bulk Viscosity
0.06, 1.2
** 
** BOUNDARY CONDITIONS
** 
** Name: XSYMM Type: Symmetry/Antisymmetry/Encastre
*Boundary
_PickedSet4, XSYMM
** Name: YSYMM Type: Symmetry/Antisymmetry/Encastre
*Boundary
_PickedSet7, YSYMM
** Name: ZSYMM Type: Symmetry/Antisymmetry/Encastre
*Boundary
_PickedSet5, ZSYMM
** Name: pull Type: Displacement/Rotation
*Boundary, amplitude=Amp-1
_PickedSet6, 2, 2, 0.1
** 
** OUTPUT REQUESTS
** 
*Restart, write, number interval=1, time marks=NO
** 
** FIELD OUTPUT: F-Output-1
** 
*Output, field, variable=PRESELECT
** 
** HISTORY OUTPUT: H-Output-1
** 
*Output, history, variable=PRESELECT
*End Step
